Questionable use of curly braces in ".model sir870adp vdmos(rg=3 vto=2.9 rd=3.2m rs=1.5m rb={m} kp=100 mtriode=1.85 cgdmax=1.4n cgdmin=70p cgs=2.9n cjo=3.6n m=.4 a=.7 vj=.7 lambda=20m is=3p ksubthres=.08 mfg=siliconix vds=100 ron=5.5m qg=53.5n)"
    Error: undefined symbol in: "[m]"
Circuit: * C:\Users\kunmu\Documents\Kunal\UE courses\EE-380\project1_Automatic_Door\kunal.asc

Direct Newton iteration for .op point succeeded.

Date: Sun Feb 17 21:24:52 2019
Total elapsed time: 0.063 seconds.

tnom = 27
temp = 27
method = modified trap
totiter = 7003
traniter = 6994
tranpoints = 2842
accept = 2406
rejected = 436
matrix size = 8
fillins = 0
solver = Normal
Matrix Compiler1: 326 bytes object code size  0.1/0.1/[0.1]
Matrix Compiler2: 560 bytes object code size  0.1/0.1/[0.1]


